#p opt(nomicro)  external='../aimnet2g16.sh'  nosymm

Title Card Required

0 1
C          1.02524       -0.02009        0.02076
C          2.54559       -0.03503        0.02952
C          3.08436       -1.16007        0.91159
C          4.61253       -1.17496        0.92230
C          5.14695       -2.30373        1.80406
C          6.67498       -2.31903        1.81690
C          7.21122       -3.44425        2.69785
C          8.73341       -3.46206        2.71268
O          9.19426       -4.52199        3.53908
H          0.65737        0.79023       -0.61516
H          0.63001        0.13271        1.03033
H          0.62702       -0.96390       -0.36480
H          2.91343        0.93197        0.39163
H          2.91069       -0.15802       -0.99663
H          2.70996       -2.12448        0.54668
H          2.71111       -1.03526        1.93538
H          4.98742       -0.21180        1.28963
H          4.98706       -1.29896       -0.10114
H          4.77232       -3.26693        1.43640
H          4.77154       -2.18024        2.82739
H          7.04879       -1.35547        2.18406
H          7.04982       -2.44275        0.79359
H          6.83993       -4.41461        2.34529
H          6.83655       -3.33421        3.72321
H          9.13939       -2.52058        3.09630
H          9.13056       -3.62171        1.70543
H          8.84714       -4.36787        4.43410



