11
Properties=species:S:1:pos:R:3:forces:R:3:charge:R:1 energy=-3243.945619661551 pbc="F F F"
C          1.06106        0.00327        0.04662
C          2.58427        0.03440        0.07148
C          3.12929        1.14740        0.95802
H          0.68858       -0.79689       -0.59078
H          0.65940        0.94484       -0.32836
H          0.65932       -0.15165        1.04817
H          2.96262        0.15918       -0.94372
H          2.96258       -0.92719        0.42014
H          2.78891        2.12291        0.61015
H          4.21794        1.15560        0.96443
H          2.78906        1.02642        1.98667
