22
Properties=species:S:1:pos:R:3:forces:R:3:charge:R:1 energy=-313.4714625403651 pbc="F F F"
H        1.02189459       0.06132340      -0.05015810      -0.00220158       0.00034864       0.00037671       0.11215577
C        2.10377401      -0.00279845      -0.07060090       0.00147426       0.00006436      -0.00045209      -0.17925416
C        2.64917142      -1.01996604       0.59042517       0.00060787      -0.00142570       0.00156276      -0.17730513
H        1.96401151      -1.68900167       1.09952013       0.00066874       0.00060601      -0.00127700       0.10908996
C        4.08996415      -1.41476838       0.79166066      -0.00195374       0.00233150      -0.00078426      -0.09435125
C        5.19640474      -0.57693358       0.15420282      -0.00184168       0.00077559      -0.00117447      -0.13252150
C        5.48279099       0.75494522       0.85922666       0.00202979       0.00061396      -0.00053714      -0.14516518
H        6.05473096       0.53319660       1.76329216      -0.00007739       0.00039110      -0.00036009       0.06677578
C        4.27290304       1.59150918       1.27414070      -0.00079905       0.00025746       0.00016666      -0.13900606
H        3.63201292       0.99542042       1.92170883      -0.00077458      -0.00102972       0.00030991       0.08820350
H        4.63042624       2.42398019       1.88221331      -0.00015030       0.00016601       0.00058714       0.06618480
C        3.42590270       2.16101988       0.13923219       0.00035200       0.00047891      -0.00124822      -0.14572030
C        2.79658517       1.11809215      -0.79580970       0.00143691      -0.00073464       0.00137465      -0.09879945
H        4.18831708      -2.44883629       0.45142252       0.00055625      -0.00143672      -0.00023814       0.07131000
H        4.27256860      -1.46252042       1.87092293       0.00018337      -0.00033697       0.00126579       0.07506934
H        4.98121643      -0.43116695      -0.90027807       0.00038992      -0.00025408       0.00016972       0.08471514
H        6.11735414      -1.16148151       0.18412161       0.00196322      -0.00119961       0.00071445       0.06731780
H        6.13706474       1.35672184       0.22589906      -0.00052725      -0.00052708       0.00006302       0.06974383
H        4.03243623       2.84619367      -0.45628439       0.00024539      -0.00015890       0.00001188       0.06878197
H        2.62457265       2.75258668       0.58360220      -0.00003678       0.00029467       0.00017739       0.07117353
H        3.55629379       0.72398737      -1.46467038      -0.00052967      -0.00013658      -0.00015473       0.08699065
H        2.07503515       1.62493883      -1.43633639      -0.00101336       0.00091490      -0.00055687       0.07461102
