12
Properties=species:S:1:pos:R:3:forces:R:3:charge:R:1 energy=-5291.628195075337 pbc="F F F"
C        1.09415000      -0.02941000       0.00297000      -0.15206325       0.19973908      -0.11075352      -0.22481865
C        2.60974000      -0.05843000       0.01886000      -0.19274072       0.38294619      -0.19304523      -0.00094369
O        3.09772000       1.11776000      -0.62376000       0.26166296      -0.27334234       0.15219574      -0.26753122
C        4.51831000       1.15098000      -0.63989000      -0.43797612       0.11123092      -0.05985923      -0.09597732
H        0.68391000      -0.91880000       0.48890000       0.07318742       0.13732782      -0.07522346       0.06776510
H        0.71963000       0.01682000      -1.02497000       0.11924885      -0.09014530       0.18646470       0.07766894
H        0.71952000       0.86055000       0.51929000       0.11902563      -0.20435300      -0.02422789       0.07767391
H        2.96984000      -0.94510000      -0.51389000       0.08686085       0.01687900       0.09619078       0.07388545
H        2.96973000      -0.08945000       1.05351000       0.08148775      -0.06950227      -0.08475746       0.07374785
H        4.83657000       2.06877000      -1.14149000      -0.15218472      -0.16788501       0.09144655       0.08444384
H        4.91475000       0.29437000      -1.19323000       0.09733868       0.01690611       0.08196773       0.06704459
H        4.91257000       1.15545000       0.38081000       0.09615251      -0.05980115      -0.06039864       0.06704120
12
Properties=species:S:1:pos:R:3:forces:R:3:charge:R:1 energy=-5291.636974223927 pbc="F F F"
C        1.09197767      -0.02655658       0.00138781      -0.01287823       0.07014525      -0.03653561      -0.22490782
C        2.60698656      -0.05295934       0.01610221      -0.05075981       0.06934550      -0.04224323       0.00092377
O        3.10145804       1.11385511      -0.62158578      -0.00127938      -0.04475095       0.02794714      -0.26383126
C        4.51205320       1.15256901      -0.64074513      -0.10165483      -0.09483349       0.05126323      -0.09486273
H        0.68495553      -0.91683817       0.48782538       0.07440332       0.12863021      -0.07051270       0.06748085
H        0.72133355       0.01553221      -1.02230622       0.03898537      -0.06241447       0.02860122       0.07824011
H        0.72122037       0.85763067       0.51894389       0.03818382      -0.05781675       0.03681773       0.07822731
H        2.97108087      -0.94485887      -0.51251585       0.02805320       0.08655463       0.11650667       0.07200223
H        2.97089411      -0.09044289       1.05229918       0.02811024      -0.04825530      -0.13710836       0.07201809
H        4.83439593       2.06637164      -1.14018362      -0.15507628      -0.06978309       0.03787340       0.08434352
H        4.91614055       0.29461152      -1.19205903       0.05702469       0.06849571       0.09791552       0.06517705
H        4.91394361       1.15459570       0.37994716       0.05688801      -0.04531708      -0.11052497       0.06518889
12
Properties=species:S:1:pos:R:3:forces:R:3:charge:R:1 energy=-5291.640154355564 pbc="F F F"
C        1.09121587      -0.02448732       0.00028778       0.06716613       0.01974056      -0.01098338      -0.22507694
C        2.60532964      -0.05029981       0.01461526      -0.01539111      -0.04030756       0.01833341       0.00149911
O        3.10229833       1.11205207      -0.62052102      -0.09440877       0.04780051      -0.02401798      -0.26227239
C        4.50856290       1.15103326      -0.63991408       0.02934717      -0.05756090       0.03135055      -0.09466720
H        0.68669147      -0.91380131       0.48616082       0.05077023       0.07276795      -0.03983300       0.06749663
H        0.72251088       0.01398084      -1.02111492      -0.00487300      -0.03785864      -0.05773923       0.07845891
H        0.72238086       0.85579364       0.51960286      -0.00570840       0.02895404       0.06348383       0.07845659
H        2.97193153      -0.94306534      -0.50985852       0.01303787       0.06493894       0.08187781       0.07136313
H        2.97172813      -0.09164168       1.04926609       0.01357719      -0.03177306      -0.09880334       0.07137965
H        4.83077897       2.06441507      -1.13912063      -0.14976142      -0.04896495       0.02646419       0.08366451
H        4.91760752       0.29604258      -1.18982201       0.04798577       0.02396274       0.06502292       0.06484468
H        4.91540390       1.15348800       0.37752838       0.04825836      -0.04169967      -0.05515587       0.06485333
12
Properties=species:S:1:pos:R:3:forces:R:3:charge:R:1 energy=-5291.642455202222 pbc="F F F"
C        1.09198697      -0.02245792      -0.00081908       0.05183427       0.00856270      -0.00456138      -0.22500215
C        2.60359832      -0.04882922       0.01376630       0.02328169      -0.05936088       0.02969482       0.00170260
O        3.10129039       1.11150062      -0.62012646      -0.08953826       0.07738693      -0.04163488      -0.26197404
C        4.50629354       1.14941161      -0.63903048       0.04942214      -0.03692373       0.02024606      -0.09491531
H        0.68888500      -0.91031840       0.48425320       0.02445718       0.01082395      -0.00594566       0.06755776
H        0.72329665       0.01211416      -1.02136117      -0.02001577      -0.01223926      -0.08415800       0.07842132
H        0.72313881       0.85501809       0.52131828      -0.02012494       0.06411620       0.05573370       0.07841619
H        2.97290148      -0.94070601      -0.50645649       0.01134125       0.01200208       0.02592956       0.07123292
H        2.97268525      -0.09314437       1.04534271       0.01215558      -0.01449103      -0.02269663       0.07124700
H        4.82514808       2.06183919      -1.13772368      -0.11430853       0.00812726      -0.00472808       0.08342325
H        4.91970974       0.29726498      -1.18704881       0.03537081      -0.02432748       0.02450177       0.06494202
H        4.91750578       1.15181727       0.37499568       0.03612464      -0.03367670       0.00761867       0.06494845
12
Properties=species:S:1:pos:R:3:forces:R:3:charge:R:1 energy=-5291.643411995213 pbc="F F F"
C        1.09293073      -0.02097903      -0.00162066       0.00671483       0.00869997      -0.00520043      -0.22486100
C        2.60299484      -0.04857343       0.01357441       0.02418111      -0.02103140       0.01126795       0.00152113
O        3.09965130       1.11224259      -0.62047198      -0.03363307       0.03927334      -0.02177716      -0.26219058
C        4.50534721       1.14804436      -0.63828258       0.02580636      -0.00299004       0.00190164      -0.09525678
H        0.69048005      -0.90831213       0.48315372       0.01029980      -0.01518669       0.00830761       0.06758712
H        0.72349981       0.01088434      -1.02273360      -0.01215109       0.00455600      -0.05938081       0.07828654
H        0.72332837       0.85551631       0.52309753      -0.01186944       0.05222289       0.02822270       0.07828403
H        2.97372624      -0.93942396      -0.50428318       0.01556760      -0.02423947      -0.01329976       0.07146266
H        2.97351221      -0.09422155       1.04304532       0.01605521      -0.00194210       0.02835467       0.07146089
H        4.82014392       2.06065709      -1.13708862      -0.08000748       0.03137811      -0.01739569       0.08328614
H        4.92150803       0.29736904      -1.18518304       0.01905339      -0.04459219       0.00253332       0.06520806
H        4.91931728       1.15030638       0.37390268       0.01998282      -0.02614848       0.03646600       0.06521178
12
Properties=species:S:1:pos:R:3:forces:R:3:charge:R:1 energy=-5291.644005137042 pbc="F F F"
C        1.09330836      -0.02004499      -0.00213694      -0.02041681       0.01120429      -0.00641531      -0.22475544
C        2.60306864      -0.04858437       0.01355853       0.01301591       0.00310243      -0.00075657       0.00134833
O        3.09850695       1.11307496      -0.62090402       0.01518620      -0.00366074       0.00141342      -0.26232460
C        4.50514302       1.14739410      -0.63792182       0.00570602       0.00873255      -0.00448377      -0.09540767
H        0.69144489      -0.90758585       0.48275543       0.00482161      -0.01595732       0.00870546       0.06760050
H        0.72345824       0.01037743      -1.02429703      -0.00008532       0.01288495      -0.02263524       0.07817973
H        0.72328586       0.85655813       0.52436982       0.00040389       0.02556869       0.00121231       0.07817604
H        2.97444160      -0.93929035      -0.50351189       0.01407853      -0.02812783      -0.02502350       0.07160906
H        2.97423558      -0.09477129       1.04250337       0.01427696       0.00547150       0.03746741       0.07159881
H        4.81632070       2.06064894      -1.13709387      -0.05346437       0.03421796      -0.01888592       0.08326286
H        4.92269691       0.29662616      -1.18423160       0.00279652      -0.03515774      -0.00077892       0.06535470
H        4.92052926       1.14910713       0.37402001       0.00368105      -0.01827870       0.03018056       0.06535770
12
Properties=species:S:1:pos:R:3:forces:R:3:charge:R:1 energy=-5291.644136274137 pbc="F F F"
C        1.09314780      -0.01936145      -0.00251744      -0.01993169       0.00712213      -0.00411898      -0.22469634
C        2.60337564      -0.04862478       0.01358107       0.00195406       0.00646990      -0.00251763       0.00127724
O        3.09816509       1.11345519      -0.62111048       0.03552822      -0.03043145       0.01618558      -0.26229221
C        4.50524390       1.14714523      -0.63777782      -0.00053255       0.00971650      -0.00511973      -0.09537351
H        0.69206150      -0.90748168       0.48269735       0.00256663      -0.00567573       0.00305485       0.06759347
H        0.72342941       0.01037197      -1.02556812       0.00742817       0.01634387       0.00443884       0.07814260
H        0.72326602       0.85761540       0.52505767       0.00784057       0.00474153      -0.01630883       0.07813884
H        2.97507314      -0.93971075      -0.50356582       0.00723950      -0.01495681      -0.01973959       0.07161351
H        2.97487666      -0.09494580       1.04288974       0.00729027       0.00811669       0.02338660       0.07160181
H        4.81323604       2.06132471      -1.13747194      -0.03396706       0.02387040      -0.01316112       0.08323516
H        4.92335130       0.29560345      -1.18371022      -0.00805646      -0.01508189       0.00254663       0.06537776
H        4.92121352       1.14811851       0.37460600      -0.00735961      -0.01023507       0.01135330       0.06538165
12
Properties=species:S:1:pos:R:3:forces:R:3:charge:R:1 energy=-5291.6443844305595 pbc="F F F"
C        1.09280633      -0.01893753      -0.00275712      -0.00439388       0.00127290      -0.00078140      -0.22467335
C        2.60364145      -0.04871713       0.01364381      -0.00154364      -0.00233433       0.00178228       0.00131566
O        3.09851465       1.11319455      -0.62097594       0.02843908      -0.03345501       0.01814242      -0.26219934
C        4.50548370       1.14713989      -0.63776739       0.00015262       0.00415362      -0.00220919      -0.09523094
H        0.69242991      -0.90755215       0.48273433       0.00048664       0.00369180      -0.00209789       0.06757918
H        0.72350715       0.01071152      -1.02625816       0.00930840       0.01626258       0.01518090       0.07815573
H        0.72335610       0.85836792       0.52514000       0.00953963      -0.00420351      -0.02200692       0.07815148
H        2.97551170      -0.94018636      -0.50396850      -0.00045800      -0.00122763      -0.00841648       0.07152335
H        2.97532350      -0.09486808       1.04351906      -0.00046120       0.00614519       0.00579622       0.07151388
H        4.81092156       2.06217800      -1.13794517      -0.02099341       0.01133483      -0.00625533       0.08320059
H        4.92352588       0.29477818      -1.18338460      -0.01026864       0.00149671       0.00476468       0.06532917
H        4.92141809       1.14740120       0.37512968      -0.00980773      -0.00313712      -0.00389932       0.06533457
12
Properties=species:S:1:pos:R:3:forces:R:3:charge:R:1 energy=-5291.64447683141 pbc="F F F"
C        1.09261019      -0.01870219      -0.00289225       0.01104190      -0.00372113       0.00202017      -0.22467059
C        2.60382497      -0.04893714       0.01377751      -0.00004487      -0.01068155       0.00584738       0.00140026
O        3.09914899       1.11249664      -0.62060205       0.00895225      -0.02149579       0.01189650      -0.26213855
C        4.50573595       1.14719079      -0.63778967       0.00059772      -0.00100897       0.00051640      -0.09507108
H        0.69264612      -0.90754784       0.48272947      -0.00216227       0.00820060      -0.00458544       0.06755909
H        0.72369840       0.01124742      -1.02645892       0.00831917       0.01411395       0.01397925       0.07818476
H        0.72355898       0.85881541       0.52479241       0.00835118      -0.00418149      -0.01948239       0.07818031
H        2.97574459      -0.94049373      -0.50437274      -0.00537375       0.00427492       0.00115660       0.07142568
H        2.97556236      -0.09470187       1.04401077      -0.00542084       0.00122726      -0.00396242       0.07141826
H        4.80911343       2.06292998      -1.13836149      -0.01224894       0.00112372      -0.00064404       0.08315681
H        4.92343829       0.29429688      -1.18311321      -0.00611979       0.00963144       0.00327990       0.06527422
H        4.92135774       1.14691566       0.37539016      -0.00589175       0.00251693      -0.01002197       0.06528081
12
Properties=species:S:1:pos:R:3:forces:R:3:charge:R:1 energy=-5291.644444279402 pbc="F F F"
C        1.09271678      -0.01863057      -0.00293598       0.01665780      -0.00526874       0.00291367      -0.22468112
C        2.60394953      -0.04927348       0.01397043       0.00265922      -0.01275392       0.00672588       0.00147467
O        3.09966046       1.11170555      -0.62017131      -0.00788198      -0.00608106       0.00364101      -0.26213863
C        4.50588686       1.14721221      -0.63779860      -0.00169981      -0.00312540       0.00162318      -0.09496114
H        0.69272703      -0.90740195       0.48264622      -0.00487877       0.00742545      -0.00417077       0.06754033
H        0.72396849       0.01184055      -1.02634158       0.00710597       0.01097034       0.00729131       0.07820307
H        0.72383655       0.85902995       0.52422598       0.00700546      -0.00015397      -0.01318158       0.07819873
H        2.97578653      -0.94062525      -0.50459742      -0.00606239       0.00108305       0.00564710       0.07137454
H        2.97560672      -0.09459070       1.04425594      -0.00615598      -0.00416737      -0.00373673       0.07136858
H        4.80777929       2.06340386      -1.13862434      -0.00673031      -0.00410159       0.00221800       0.08311811
H        4.92329081       0.29416737      -1.18290356      -0.00004680       0.01011187      -0.00061997       0.06524779
H        4.92123097       1.14667245       0.37538422       0.00002747       0.00606132      -0.00835110       0.06525512
12
Properties=species:S:1:pos:R:3:forces:R:3:charge:R:1 energy=-5291.64443947775 pbc="F F F"
C        1.09306386      -0.01865814      -0.00292342       0.01261186      -0.00399711       0.00221423      -0.22470090
C        2.60406790      -0.04967610       0.01419424       0.00376286      -0.00951504       0.00498693       0.00151407
O        3.09986964       1.11105808      -0.61981227      -0.01546615       0.00453180      -0.00211008      -0.26216972
C        4.50588567       1.14718885      -0.63778550      -0.00501627      -0.00235939       0.00119637      -0.09491476
H        0.69268437      -0.90716638       0.48251298      -0.00700932       0.00408804      -0.00234104       0.06752578
H        0.72429844       0.01243019      -1.02611485       0.00678443       0.00754449       0.00022841       0.07820552
H        0.72416949       0.85915410       0.52360457       0.00662526       0.00397470      -0.00645716       0.07820137
H        2.97571529      -0.94072368      -0.50463934      -0.00378127      -0.00570876       0.00621682       0.07137490
H        2.97553448      -0.09461304       1.04437198      -0.00392976      -0.00827839       0.00154788       0.07136800
H        4.80677158       2.06362569      -1.13874864      -0.00323552      -0.00516117       0.00278513       0.08308962
H        4.92321214       0.29426167      -1.18278686       0.00432667       0.00718559      -0.00445216       0.06524915
H        4.92116716       1.14662876       0.37523711       0.00432712       0.00769520      -0.00381535       0.06525695
12
Properties=species:S:1:pos:R:3:forces:R:3:charge:R:1 energy=-5291.644610211737 pbc="F F F"
C        1.09355337      -0.01873261      -0.00288446       0.00309457      -0.00120495       0.00069112      -0.22473036
C        2.60422134      -0.05015160       0.01445554       0.00268051      -0.00421307       0.00226383       0.00152287
O        3.09980120       1.11054680      -0.61952105      -0.01478483       0.00881072      -0.00448517      -0.26219705
C        4.50572979       1.14714127      -0.63776092      -0.00744534      -0.00013625       0.00000642      -0.09491085
H        0.69251025      -0.90687910       0.48234995      -0.00854547       0.00034607      -0.00028041       0.06751612
H        0.72474013       0.01308184      -1.02589491       0.00714132       0.00376688      -0.00577377       0.07819831
H        0.72461076       0.85931961       0.52293525       0.00697021       0.00695523      -0.00003632       0.07819404
H        2.97559821      -0.94094510      -0.50455674      -0.00021640      -0.01186638       0.00530788       0.07140565
H        2.97541292      -0.09480532       1.04452287      -0.00041771      -0.01085281       0.00707506       0.07139722
H        4.80582663       2.06371358      -1.13880012      -0.00049679      -0.00364826       0.00193312       0.08306752
H        4.92323372       0.29448077      -1.18277303       0.00601399       0.00395956      -0.00701470       0.06526430
H        4.92120168       1.14673987       0.37503762       0.00600630       0.00808320       0.00031291       0.06527220
12
Properties=species:S:1:pos:R:3:forces:R:3:charge:R:1 energy=-5291.6446211125385 pbc="F F F"
C        1.09411107      -0.01882478      -0.00283518      -0.00831588       0.00213275      -0.00116688      -0.22477025
C        2.60442406      -0.05074136       0.01477961      -0.00025502       0.00064527      -0.00021651       0.00150766
O        3.09949020       1.11010711      -0.61926137      -0.00784978       0.00681954      -0.00349046      -0.26219714
C        4.50540237       1.14709302      -0.63773734      -0.00733822       0.00263703      -0.00145926      -0.09493231
H        0.69214841      -0.90655020       0.48216171      -0.00956555      -0.00247570       0.00128749       0.06751380
H        0.72538553       0.01387456      -1.02575489       0.00760559      -0.00053284      -0.01037481       0.07818703
H        0.72525247       0.85962922       0.52219027       0.00744562       0.00845590       0.00606863       0.07818241
H        2.97547495      -0.94142548      -0.50436142       0.00341681      -0.01477324       0.00449276       0.07144998
H        2.97528052      -0.09523243       1.04483055       0.00320641      -0.01177831       0.00989200       0.07144041
H        4.80476529       2.06374978      -1.13882508       0.00197806      -0.00041274       0.00013040       0.08304735
H        4.92336130       0.29481016      -1.18288833       0.00481599       0.00179273      -0.00774911       0.06528169
H        4.92134383       1.14702041       0.37481146       0.00485600       0.00748965       0.00258565       0.06528939
12
Properties=species:S:1:pos:R:3:forces:R:3:charge:R:1 energy=-5291.644685788986 pbc="F F F"
C        1.09457865      -0.01889642      -0.00279730      -0.01658259       0.00477270      -0.00262032      -0.22481459
C        2.60463904      -0.05142686       0.01515749      -0.00392570       0.00268362      -0.00119710       0.00147537
O        3.09901736       1.10970651      -0.61901628       0.00216401      -0.00031452       0.00028265      -0.26215962
C        4.50493762       1.14708212      -0.63773482      -0.00382809       0.00486891      -0.00261831      -0.09496182
H        0.69155240      -0.90621946       0.48197016      -0.00998873      -0.00294794       0.00157780       0.06752310
H        0.72625873       0.01475648      -1.02579558       0.00739446      -0.00472151      -0.01257658       0.07817745
H        0.72611842       0.86013906       0.52146783       0.00726652       0.00795411       0.01076531       0.07817282
H        2.97539466      -0.94221952      -0.50404646       0.00564644      -0.01253649       0.00467172       0.07148985
H        2.97518641      -0.09593063       1.04533824       0.00546284      -0.01077703       0.00792076       0.07147963
H        4.80361874       2.06379752      -1.13885891       0.00384559       0.00363358      -0.00211539       0.08302860
H        4.92356892       0.29523820      -1.18315596       0.00121199       0.00135607      -0.00634986       0.06529091
H        4.92156908       1.14748301       0.37458158       0.00133308       0.00602830       0.00225921       0.06529835
12
Properties=species:S:1:pos:R:3:forces:R:3:charge:R:1 energy=-5291.644754632155 pbc="F F F"
C        1.09481761      -0.01890844      -0.00279202      -0.01791154       0.00571461      -0.00314808      -0.22485223
C        2.60480419      -0.05218667       0.01557904      -0.00645500       0.00110599      -0.00035714       0.00143498
O        3.09852437       1.10926196      -0.61874286       0.01092449      -0.00894064       0.00488168      -0.26209906
C        4.50442654       1.14714595      -0.63777269       0.00201230       0.00568168      -0.00302953      -0.09497789
H        0.69070336      -0.90590420       0.48178555      -0.00985812      -0.00052481       0.00028427       0.06754632
H        0.72733497       0.01562248      -1.02608889       0.00592576      -0.00789069      -0.01164019       0.07817279
H        0.72718414       0.86085109       0.52089496       0.00582790       0.00536960       0.01291175       0.07816818
H        2.97539400      -0.94327682      -0.50359596       0.00550952      -0.00587188       0.00577079       0.07151221
H        2.97516788      -0.09688697       1.04599534       0.00541105      -0.00814593       0.00186019       0.07150279
H        4.80247134       2.06392668      -1.13894042       0.00461914       0.00730620      -0.00414663       0.08301108
H        4.92379494       0.29575535      -1.18356179      -0.00311099       0.00220083      -0.00344182       0.06528672
H        4.92181668       1.14810956       0.37434973      -0.00289455       0.00399527       0.00005472       0.06529410
12
Properties=species:S:1:pos:R:3:forces:R:3:charge:R:1 energy=-5291.644712205831 pbc="F F F"
C        1.09479147      -0.01883736      -0.00283257      -0.01163581       0.00479215      -0.00268816      -0.22487432
C        2.60487576      -0.05304463       0.01605692      -0.00634694      -0.00262707       0.00159079       0.00139491
O        3.09814316       1.10864908      -0.61837488       0.01492055      -0.01477139       0.00798180      -0.26204762
C        4.50396386       1.14730871      -0.63786370       0.00791737       0.00496144      -0.00261302      -0.09496412
H        0.68957830      -0.90556440       0.48158654      -0.00933857       0.00405149      -0.00219361       0.06758353
H        0.72859138       0.01639496      -1.02664954       0.00307323      -0.00936722      -0.00756751       0.07817169
H        0.72842682       0.86173433       0.52054482       0.00299061       0.00110815       0.01195944       0.07816737
H        2.97547794      -0.94450418      -0.50297675       0.00314628       0.00218880       0.00674779       0.07151762
H        2.97523120      -0.09807980       1.04670798       0.00315328      -0.00463386      -0.00527842       0.07150938
H        4.80135793       2.06420540      -1.13910750       0.00395966       0.00945711      -0.00532836       0.08299338
H        4.92397658       0.29637081      -1.18407367      -0.00606414       0.00310102      -0.00021312       0.06527047
H        4.92202563       1.14887706       0.37409232      -0.00577573       0.00173946      -0.00239746       0.06527770
12
Properties=species:S:1:pos:R:3:forces:R:3:charge:R:1 energy=-5291.644746182856 pbc="F F F"
C        1.09457020      -0.01868433      -0.00291945      -0.00080524       0.00252154      -0.00144117      -0.22487551
C        2.60484027      -0.05394540       0.01656028      -0.00309180      -0.00565594       0.00311758       0.00136268
O        3.09799611       1.10783197      -0.61789766       0.01238337      -0.01392872       0.00749328      -0.26204452
C        4.50367486       1.14756101      -0.63800173       0.01073816       0.00311607      -0.00161089      -0.09491323
H        0.68827917      -0.90515490       0.48135023      -0.00854687       0.00862446      -0.00468956       0.06762774
H        0.72985930       0.01694443      -1.02736958      -0.00049272      -0.00862168      -0.00160827       0.07817011
H        0.72967916       0.86262784       0.52046860      -0.00056278      -0.00352586       0.00810513       0.07816586
H        2.97561478      -0.94566972      -0.50222985      -0.00022819       0.00716983       0.00616704       0.07151492
H        2.97534809      -0.09934894       1.04730350      -0.00013431      -0.00144049      -0.00902017       0.07150824
H        4.80038435       2.06465268      -1.13936948       0.00193761       0.00902358      -0.00506854       0.08297616
H        4.92405644       0.29702377      -1.18459651      -0.00575097       0.00284687       0.00185290       0.06525012
H        4.92213728       1.14967159       0.37381161      -0.00544618      -0.00012972      -0.00329736       0.06525742
12
Properties=species:S:1:pos:R:3:forces:R:3:charge:R:1 energy=-5291.644793848344 pbc="F F F"
C        1.09436590      -0.01851348      -0.00301631       0.00722444       0.00042110      -0.00028029      -0.22486074
C        2.60475746      -0.05464930       0.01695433       0.00133675      -0.00520601       0.00281582       0.00134447
O        3.09810913       1.10704228      -0.61744687       0.00567609      -0.00674892       0.00361613      -0.26210269
C        4.50365357       1.14781316      -0.63813773       0.00856128       0.00132052      -0.00067550      -0.09484584
H        0.68718357      -0.90471357       0.48110081      -0.00762525       0.00999866      -0.00545755       0.06766184
H        0.73073387       0.01713054      -1.02793645      -0.00301468      -0.00611593       0.00308113       0.07816371
H        0.73054111       0.86319456       0.52061597      -0.00309132      -0.00608569       0.00346605       0.07815963
H        2.97572255      -0.94638999      -0.50158619      -0.00232103       0.00580081       0.00355850       0.07151880
H        2.97544327      -0.10028967       1.04758015      -0.00221135       0.00006141      -0.00647031       0.07151252
H        4.79976741       2.06513715      -1.13964933      -0.00035613       0.00615101      -0.00345730       0.08296367
H        4.92402672       0.29751510      -1.18494965      -0.00221623       0.00127654       0.00176747       0.06523849
H        4.92213546       1.15023319       0.37358125      -0.00196262      -0.00087367      -0.00196402       0.06524613
12
Properties=species:S:1:pos:R:3:forces:R:3:charge:R:1 energy=-5291.644803797274 pbc="F F F"
C        1.09435139      -0.01840259      -0.00307964       0.00796821      -0.00039292       0.00016602      -0.22484758
C        2.60472908      -0.05501333       0.01715869       0.00375690      -0.00218424       0.00119309       0.00133560
O        3.09830656       1.10655911      -0.61717611       0.00054227       0.00047098      -0.00025819      -0.26217616
C        4.50379099       1.14797311      -0.63822318       0.00408741       0.00054049      -0.00027405      -0.09479704
H        0.68653800      -0.90433144       0.48088862      -0.00661600       0.00773355      -0.00424363       0.06767592
H        0.73106210       0.01705544      -1.02814789      -0.00353837      -0.00353916       0.00434473       0.07815384
H        0.73086217       0.86332309       0.52079211      -0.00363201      -0.00569328       0.00062803       0.07815005
H        2.97574856      -0.94661907      -0.50123302      -0.00214825       0.00097292       0.00055159       0.07153390
H        2.97546552      -0.10071667       1.04759540      -0.00207797       0.00003241      -0.00089682       0.07152717
H        4.79950646       2.06548181      -1.13984646      -0.00159303       0.00290106      -0.00164535       0.08295777
H        4.92397651       0.29773970      -1.18507863       0.00153855      -0.00022565       0.00053616       0.06523950
H        4.92210267       1.15046085       0.37346007       0.00171210      -0.00061623      -0.00010161       0.06524704
12
Properties=species:S:1:pos:R:3:forces:R:3:charge:R:1 energy=-5291.644829739867 pbc="F F F"
C        1.09447490      -0.01834999      -0.00311064       0.00443199      -0.00033774       0.00017289      -0.22484484
C        2.60477825      -0.05517601       0.01725080       0.00373004       0.00057587      -0.00025976       0.00132797
O        3.09844500       1.10634491      -0.61705693      -0.00116783       0.00384539      -0.00203893      -0.26222506
C        4.50392745       1.14805993      -0.63826913       0.00064197       0.00036223      -0.00020637      -0.09477298
H        0.68614850      -0.90401729       0.48071540      -0.00539347       0.00414904      -0.00230851       0.06767935
H        0.73111662       0.01693188      -1.02813823      -0.00291980      -0.00170303       0.00336111       0.07814449
H        0.73091205       0.86324184       0.52089029      -0.00301979      -0.00384075      -0.00039074       0.07814084
H        2.97572543      -0.94668045      -0.50108361      -0.00093248      -0.00267834      -0.00139814       0.07155219
H        2.97544239      -0.10087868       1.04757556      -0.00091753      -0.00026175       0.00310014       0.07154487
H        4.79937326       2.06568926      -1.13996465      -0.00173295       0.00067817      -0.00040697       0.08295554
H        4.92397962       0.29781753      -1.18510967       0.00358470      -0.00070156      -0.00037328       0.06524490
H        4.92211653       1.15052705       0.37341078       0.00369506      -0.00008751       0.00074862       0.06525275
12
Properties=species:S:1:pos:R:3:forces:R:3:charge:R:1 energy=-5291.6448454968495 pbc="F F F"
C        1.09464198      -0.01832283      -0.00312707       0.00001556      -0.00016243       0.00007741      -0.22484970
C        2.60488135      -0.05528026       0.01731109       0.00217676       0.00192187      -0.00096286       0.00131701
O        3.09852085       1.10625763      -0.61700618      -0.00078920       0.00377598      -0.00195818      -0.26224649
C        4.50402254       1.14812258      -0.63830267      -0.00110021       0.00031233      -0.00019218      -0.09476246
H        0.68578504      -0.90372788       0.48055520      -0.00378314       0.00061729      -0.00039552       0.06768076
H        0.73111045       0.01683699      -1.02806046      -0.00197649      -0.00034338       0.00159620       0.07813699
H        0.73090087       0.86311905       0.52092746      -0.00208943      -0.00157197      -0.00056990       0.07813337
H        2.97569166      -0.94677866      -0.50101152       0.00028265      -0.00379480      -0.00214328       0.07156837
H        2.97540868      -0.10099431       1.04762718       0.00025383      -0.00021096       0.00435423       0.07156068
H        4.79922937       2.06583869      -1.14005026      -0.00126725      -0.00062470       0.00032194       0.08295372
H        4.92405040       0.29786578      -1.18513544       0.00410447      -0.00028462      -0.00062985       0.06524986
H        4.92219682       1.15057318       0.37338264       0.00417263       0.00036545       0.00050190       0.06525791
